[TITLE]
CY-DBP: A testbed for research on Disinfection By-Products (DBPs) based on the results of the "intoDBP" project.

[JUNCTIONS]
;ID              	Elev        	Demand      	Pattern         
 dist1           	44.9046     	0.262693    	DMA_inflow      	;NULL
 dist11          	38.3133     	0.248583    	DMA_inflow      	;NULL
 dist30          	34.9985     	0.330095    	DMA_inflow      	;NULL
 dist33          	42.5166     	0.544749    	DMA_inflow      	;NULL
 dist35          	39.5344     	0.304437    	DMA_inflow      	;NULL
 dist51          	44.7297     	0.463706    	DMA_inflow      	;NULL
 dist64          	40.0953     	0.096366    	DMA_inflow      	;NULL
 dist66          	33.3585     	0.477960    	DMA_inflow      	;NULL
 dist68          	44.7858     	0.282317    	DMA_inflow      	;NULL
 dist71          	41.6891     	0.226887    	DMA_inflow      	;NULL
 dist78          	27.8630     	0.000000    	DMA_inflow      	;NULL
 dist83          	27.9341     	0.365737    	DMA_inflow      	;NULL
 dist90          	41.0447     	0.396341    	DMA_inflow      	;NULL
 dist97          	27.4972     	0.120447    	DMA_inflow      	;NULL
 dist100         	29.6279     	0.142153    	DMA_inflow      	;NULL
 dist103         	40.8453     	0.491182    	DMA_inflow      	;NULL
 dist105         	32.7029     	0.090090    	DMA_inflow      	;NULL
 dist106         	46.8139     	0.418174    	DMA_inflow      	;NULL
 dist110         	26.8609     	0.072034    	DMA_inflow      	;NULL
 dist115         	26.6279     	0.000000    	DMA_inflow      	;NULL
 dist116         	37.6728     	0.565978    	DMA_inflow      	;NULL
 dist136         	30.8440     	0.027995    	DMA_inflow      	;NULL
 dist160         	38.1186     	0.287150    	DMA_inflow      	;NULL
 dist165         	27.6663     	0.153587    	DMA_inflow      	;NULL
 dist179         	32.5479     	0.165722    	DMA_inflow      	;NULL
 dist181         	38.6199     	0.366498    	DMA_inflow      	;NULL
 dist183         	30.9592     	0.522418    	DMA_inflow      	;NULL
 dist195         	45.5287     	0.267173    	DMA_inflow      	;NULL
 dist209         	44.8216     	0.114000    	DMA_inflow      	;NULL
 dist219         	25.6827     	0.200575    	DMA_inflow      	;NULL
 dist223         	32.0840     	0.161224    	DMA_inflow      	;NULL
 dist225         	38.6298     	0.338336    	DMA_inflow      	;NULL
 dist231         	31.9777     	0.059400    	DMA_inflow      	;NULL
 dist273         	34.4966     	0.433932    	DMA_inflow      	;NULL
 dist275         	31.5784     	0.254038    	DMA_inflow      	;NULL
 dist284         	42.8054     	0.260983    	DMA_inflow      	;NULL
 dist288         	40.8706     	0.151603    	DMA_inflow      	;NULL
 dist289         	38.2158     	0.708728    	DMA_inflow      	;NULL
 dist295         	40.1523     	0.076843    	DMA_inflow      	;NULL
 dist306         	47.7929     	0.018042    	DMA_inflow      	;NULL
 dist310         	39.7646     	0.299386    	DMA_inflow      	;NULL
 dist312         	30.6834     	0.659293    	DMA_inflow      	;NULL
 dist330         	40.9712     	0.282216    	DMA_inflow      	;NULL
 dist337         	47.4150     	0.001175    	DMA_inflow      	;NULL
 dist341         	29.7474     	0.267157    	DMA_inflow      	;NULL
 dist342         	32.7845     	0.179615    	DMA_inflow      	;NULL
 dist348         	44.8275     	0.612206    	DMA_inflow      	;NULL
 dist354         	28.9213     	0.241316    	DMA_inflow      	;NULL
 dist356         	47.1555     	0.000000    	DMA_inflow      	;NULL
 dist361         	46.9499     	0.000000    	DMA_inflow      	;NULL
 dist376         	47.0384     	0.079111    	DMA_inflow      	;NULL
 dist379         	28.0237     	0.250845    	DMA_inflow      	;NULL
 dist383         	38.8366     	0.087405    	DMA_inflow      	;NULL
 dist394         	43.2397     	0.283525    	DMA_inflow      	;NULL
 dist398         	47.2081     	0.078467    	DMA_inflow      	;NULL
 dist399         	41.9837     	0.457621    	DMA_inflow      	;NULL
 dist406         	47.1970     	0.008408    	DMA_inflow      	;NULL
 dist408         	26.3850     	0.133008    	DMA_inflow      	;NULL
 dist412         	32.9427     	0.009462    	DMA_inflow      	;NULL
 dist415         	46.8728     	0.360250    	DMA_inflow      	;NULL
 dist417         	40.6423     	0.208008    	DMA_inflow      	;NULL
 dist420         	34.8072     	0.443668    	DMA_inflow      	;NULL
 dist424         	24.1252     	0.149528    	DMA_inflow      	;NULL
 dist426         	42.8678     	0.097373    	DMA_inflow      	;NULL
 dist439         	24.4629     	0.051907    	DMA_inflow      	;NULL
 dist443         	39.4918     	0.402989    	DMA_inflow      	;NULL
 dist446         	39.3475     	0.108570    	DMA_inflow      	;NULL
 dist458         	33.0587     	0.240983    	DMA_inflow      	;NULL
 dist470         	44.8774     	0.575548    	DMA_inflow      	;NULL
 dist473         	47.9855     	0.475080    	DMA_inflow      	;NULL
 dist485         	44.8384     	0.221407    	DMA_inflow      	;NULL
 dist490         	27.3301     	0.109998    	DMA_inflow      	;NULL
 dist494         	44.6854     	0.594642    	DMA_inflow      	;NULL
 dist504         	41.4989     	0.430538    	DMA_inflow      	;NULL
 dist521         	25.0900     	0.076565    	DMA_inflow      	;NULL
 dist523         	35.6675     	0.264353    	DMA_inflow      	;NULL
 dist525         	35.3257     	0.108567    	DMA_inflow      	;NULL
 dist532         	43.9780     	0.596728    	DMA_inflow      	;NULL
 dist546         	43.4579     	0.549182    	DMA_inflow      	;NULL
 dist555         	50.0388     	0.269607    	DMA_inflow      	;NULL
 dist559         	29.4863     	0.273438    	DMA_inflow      	;NULL
 dist585         	27.9620     	0.184756    	DMA_inflow      	;NULL
 dist592         	41.9834     	0.424757    	DMA_inflow      	;NULL
 dist593         	27.9620     	0.171484    	DMA_inflow      	;NULL
 dist606         	48.5948     	0.237774    	DMA_inflow      	;NULL
 dist616         	26.4847     	0.063405    	DMA_inflow      	;NULL
 dist622         	31.0449     	0.691235    	DMA_inflow      	;NULL
 dist628         	49.7067     	0.143970    	DMA_inflow      	;NULL
 dist631         	41.0665     	0.251368    	DMA_inflow      	;NULL
 dist632         	48.5367     	0.411770    	DMA_inflow      	;NULL
 dist648         	36.0843     	0.513072    	DMA_inflow      	;NULL
 dist650         	30.2842     	0.107633    	DMA_inflow      	;NULL
 dist655         	29.7092     	0.001377    	DMA_inflow      	;NULL
 dist656         	29.7092     	0.207787    	DMA_inflow      	;NULL
 dist679         	39.4896     	0.216697    	DMA_inflow      	;NULL
 dist680         	34.6397     	0.332898    	DMA_inflow      	;NULL
 dist681         	28.5963     	0.284098    	DMA_inflow      	;NULL
 dist688         	53.0145     	0.058403    	DMA_inflow      	;NULL
 dist701         	52.7635     	0.210856    	DMA_inflow      	;NULL
 dist707         	42.3481     	0.475272    	DMA_inflow      	;NULL
 dist708         	37.8774     	0.875469    	DMA_inflow      	;NULL
 dist745         	42.7870     	0.454374    	DMA_inflow      	;NULL
 dist759         	50.9633     	0.410507    	DMA_inflow      	;NULL
 dist772         	41.1400     	0.058842    	DMA_inflow      	;NULL
 dist787         	34.3258     	0.616149    	DMA_inflow      	;NULL
 dist789         	27.6919     	0.130158    	DMA_inflow      	;NULL
 dist806         	38.4995     	0.576587    	DMA_inflow      	;NULL
 dist819         	32.2963     	0.303864    	DMA_inflow      	;NULL
 dist830         	37.7233     	0.162555    	DMA_inflow      	;NULL
 dist839         	43.3456     	0.101034    	DMA_inflow      	;NULL
 dist852         	32.2758     	0.165689    	DMA_inflow      	;NULL
 dist865         	52.7890     	0.571509    	DMA_inflow      	;NULL
 dist885         	30.9825     	0.333387    	DMA_inflow      	;NULL
 dist889         	41.0805     	0.450864    	DMA_inflow      	;NULL
 dist891         	30.3077     	0.288341    	DMA_inflow      	;NULL
 dist896         	35.1235     	0.339260    	DMA_inflow      	;NULL
 dist908         	30.3549     	0.134537    	DMA_inflow      	;NULL
 dist931         	29.6896     	0.200920    	DMA_inflow      	;NULL
 dist932         	56.7959     	0.702787    	DMA_inflow      	;NULL
 dist989         	28.2027     	0.430698    	DMA_inflow      	;NULL
 dist993         	37.4268     	0.083231    	DMA_inflow      	;NULL
 dist996         	50.4585     	0.545681    	DMA_inflow      	;NULL
 dist998         	33.5171     	0.097656    	DMA_inflow      	;NULL
 dist999         	31.9700     	0.770235    	DMA_inflow      	;NULL
 dist1001        	49.9351     	0.451598    	DMA_inflow      	;NULL
 dist1003        	31.0460     	0.347113    	DMA_inflow      	;NULL
 dist1020        	48.5260     	0.422394    	DMA_inflow      	;NULL
 dist1025        	35.5034     	0.615265    	DMA_inflow      	;NULL
 dist1028        	61.1689     	0.157823    	DMA_inflow      	;NULL
 dist1031        	46.4292     	1.406309    	DMA_inflow      	;NULL
 dist1039        	53.9666     	0.760330    	DMA_inflow      	;NULL
 dist1075        	49.2157     	0.219279    	DMA_inflow      	;NULL
 dist1081        	51.3432     	0.166926    	DMA_inflow      	;NULL
 dist1126        	43.0044     	0.732496    	DMA_inflow      	;NULL
 dist1130        	53.7182     	0.138351    	DMA_inflow      	;NULL
 dist1144        	52.2791     	0.257058    	DMA_inflow      	;NULL
 dist1155        	59.4760     	0.134890    	DMA_inflow      	;NULL
 dist1165        	36.8314     	0.050936    	DMA_inflow      	;NULL
 dist1168        	38.2450     	0.417843    	DMA_inflow      	;NULL
 dist1179        	37.9072     	0.184942    	DMA_inflow      	;NULL
 dist1185        	46.6450     	0.414195    	DMA_inflow      	;NULL
 dist1196        	53.3723     	0.170306    	DMA_inflow      	;NULL
 dist1202        	53.0405     	0.156081    	DMA_inflow      	;NULL
 dist1214        	50.9270     	0.214341    	DMA_inflow      	;NULL
 dist1225        	40.7862     	0.650225    	DMA_inflow      	;NULL
 dist1226        	56.2809     	0.603654    	DMA_inflow      	;NULL
 dist1229        	55.9935     	0.081207    	DMA_inflow      	;NULL
 dist1241        	54.0840     	0.000000    	DMA_inflow      	;NULL
 dist1245        	54.0840     	0.173808    	DMA_inflow      	;NULL
 dist1252        	36.5037     	0.450432    	DMA_inflow      	;NULL
 dist1255        	50.8989     	0.045443    	DMA_inflow      	;NULL
 dist1268        	58.1542     	0.000000    	DMA_inflow      	;NULL
 dist1272        	50.7987     	0.674773    	DMA_inflow      	;NULL
 dist1283        	48.6859     	0.322683    	DMA_inflow      	;NULL
 dist1284        	55.1892     	0.043225    	DMA_inflow      	;NULL
 dist1287        	50.2569     	0.081759    	DMA_inflow      	;NULL
 dist1292        	46.9606     	0.105128    	DMA_inflow      	;NULL
 dist1294        	39.1205     	0.416371    	DMA_inflow      	;NULL
 dist1303        	60.1570     	0.000000    	DMA_inflow      	;NULL
 dist1304        	37.7199     	0.892081    	DMA_inflow      	;NULL
 dist1308        	57.2239     	0.108195    	DMA_inflow      	;NULL
 dist1309        	60.3732     	0.216974    	DMA_inflow      	;NULL
 dist1311        	60.5419     	0.000000    	DMA_inflow      	;NULL
 dist1313        	30.9535     	0.307034    	DMA_inflow      	;NULL
 dist1332        	39.1129     	0.081378    	DMA_inflow      	;NULL
 dist1339        	39.7259     	0.082394    	DMA_inflow      	;NULL
 dist1343        	40.1201     	0.275318    	DMA_inflow      	;NULL
 dist1345        	57.2805     	0.140852    	DMA_inflow      	;NULL
 dist1346        	40.4456     	0.208815    	DMA_inflow      	;NULL
 dist1363        	54.7319     	0.488025    	DMA_inflow      	;NULL
 dist1367        	54.9310     	0.161962    	DMA_inflow      	;NULL
 dist1369        	40.9637     	0.030540    	DMA_inflow      	;NULL
 dist1371        	54.0636     	0.042785    	DMA_inflow      	;NULL
 dist1372        	53.6185     	0.781170    	DMA_inflow      	;NULL
 dist1406        	60.5196     	0.348949    	DMA_inflow      	;NULL
 dist1413        	46.8889     	0.811721    	DMA_inflow      	;NULL
 dist1443        	29.4634     	0.717410    	DMA_inflow      	;NULL
 dist1446        	39.2882     	0.175606    	DMA_inflow      	;NULL
 dist1454        	43.7762     	0.315890    	DMA_inflow      	;NULL
 dist1455        	47.6407     	0.123626    	DMA_inflow      	;NULL
 dist1459        	54.4925     	0.475601    	DMA_inflow      	;NULL
 dist1464        	53.1857     	0.294113    	DMA_inflow      	;NULL
 dist1468        	41.8567     	0.059316    	DMA_inflow      	;NULL
 dist1471        	41.7133     	0.022987    	DMA_inflow      	;NULL
 dist1472        	41.7133     	0.108170    	DMA_inflow      	;NULL
 dist1496        	48.3790     	0.512582    	DMA_inflow      	;NULL
 dist1499        	60.2309     	0.113177    	DMA_inflow      	;NULL
 dist1502        	45.3327     	0.669028    	DMA_inflow      	;NULL
 dist1511        	57.9920     	0.187606    	DMA_inflow      	;NULL
 dist1522        	38.0948     	1.494733    	DMA_inflow      	;NULL
 dist1528        	55.8523     	0.219920    	DMA_inflow      	;NULL
 dist1539        	54.3923     	0.294530    	DMA_inflow      	;NULL
 dist1550        	42.4951     	0.364754    	DMA_inflow      	;NULL
 dist1557        	52.8167     	0.149364    	DMA_inflow      	;NULL
 dist1568        	51.6012     	0.544695    	DMA_inflow      	;NULL
 dist1607        	38.7342     	0.467750    	DMA_inflow      	;NULL
 dist1608        	48.5031     	0.446513    	DMA_inflow      	;NULL
 dist1611        	53.5810     	0.364804    	DMA_inflow      	;NULL
 dist1622        	47.3971     	0.129676    	DMA_inflow      	;NULL
 dist1634        	52.0305     	0.131448    	DMA_inflow      	;NULL
 dist1636        	42.6260     	0.528637    	DMA_inflow      	;NULL
 dist1656        	50.5984     	0.150622    	DMA_inflow      	;NULL
 dist1687        	28.7675     	0.405252    	DMA_inflow      	;NULL
 dist1689        	38.8511     	0.593886    	DMA_inflow      	;NULL
 dist1694        	34.4048     	0.915190    	DMA_inflow      	;NULL
 dist1702        	51.4711     	0.571315    	DMA_inflow      	;NULL
 dist1722        	58.8489     	0.069819    	DMA_inflow      	;NULL
 dist1723        	49.8668     	0.392755    	DMA_inflow      	;NULL
 dist1740        	42.6159     	0.351668    	DMA_inflow      	;NULL
 dist1741        	57.3208     	0.252116    	DMA_inflow      	;NULL
 dist1765        	55.1422     	0.107499    	DMA_inflow      	;NULL
 dist1768        	30.2299     	0.264638    	DMA_inflow      	;NULL
 dist1769        	30.2639     	0.094615    	DMA_inflow      	;NULL
 dist1770        	40.2585     	0.192720    	DMA_inflow      	;NULL
 dist1786        	29.7674     	0.000000    	DMA_inflow      	;NULL
 dist1788        	52.9070     	0.572721    	DMA_inflow      	;NULL
 dist1801        	46.9169     	0.256239    	DMA_inflow      	;NULL
 dist1802        	38.5689     	0.273257    	DMA_inflow      	;NULL
 dist1808        	58.1493     	0.000000    	DMA_inflow      	;NULL
 dist1812        	32.6888     	0.163723    	DMA_inflow      	;NULL
 dist1829        	44.4734     	0.401291    	DMA_inflow      	;NULL
 dist1840        	54.7464     	0.027632    	DMA_inflow      	;NULL
 dist1843        	54.8341     	0.349909    	DMA_inflow      	;NULL
 dist1850        	53.4263     	0.146452    	DMA_inflow      	;NULL
 dist1854        	35.2252     	0.274718    	DMA_inflow      	;NULL
 dist1869        	50.2970     	0.177912    	DMA_inflow      	;NULL
 dist1876        	27.5012     	0.206921    	DMA_inflow      	;NULL
 dist1877        	40.2479     	0.308878    	DMA_inflow      	;NULL
 dist1878        	29.4137     	0.134385    	DMA_inflow      	;NULL
 dist1887        	41.9888     	0.376573    	DMA_inflow      	;NULL
 dist1892        	42.5352     	0.530291    	DMA_inflow      	;NULL
 dist1893        	27.2930     	0.019000    	DMA_inflow      	;NULL
 dist1900        	44.1901     	0.095161    	DMA_inflow      	;NULL
 dist1901        	29.4679     	0.249718    	DMA_inflow      	;NULL
 dist1903        	44.7870     	0.156570    	DMA_inflow      	;NULL
 dist1906        	46.0199     	0.196348    	DMA_inflow      	;NULL
 dist1915        	47.6338     	0.593906    	DMA_inflow      	;NULL
 dist1924        	37.7610     	0.117427    	DMA_inflow      	;NULL
 dist1931        	34.3322     	0.262285    	DMA_inflow      	;NULL
 dist1936        	37.0560     	0.421964    	DMA_inflow      	;NULL
 dist1944        	38.4651     	0.251671    	DMA_inflow      	;NULL
 dist1962        	43.2149     	0.983963    	DMA_inflow      	;NULL
 dist1973        	53.5440     	0.176019    	DMA_inflow      	;NULL
 dist1975        	49.1289     	0.465023    	DMA_inflow      	;NULL
 dist1978        	54.5702     	0.201418    	DMA_inflow      	;NULL
 dist1979        	51.4095     	0.269894    	DMA_inflow      	;NULL
 dist1984        	52.3645     	0.101415    	DMA_inflow      	;NULL
 dist1987        	52.2466     	0.000000    	DMA_inflow      	;NULL
 dist1988        	53.8343     	0.002370    	DMA_inflow      	;NULL
 dist412_new     	32.9427     	0.178269    	DMA_inflow      	;NULL
 240             	41.2453     	235         	Flow221         	;NULL
 292             	39.6981     	0.000000    	                	;NULL
 296             	38.8693     	0.000000    	                	;NULL
 348             	45.8900     	49.286896   	Flow227         	;227
 350             	46.3703     	0.000000    	                	;NULL
 406             	83.0877     	0.000000    	                	;NULL
 408             	86.2383     	0.000000    	                	;NULL
 414             	94.9758     	0.000000    	                	;NULL
 419             	94.9044     	0.000000    	                	;NULL
 423             	60.3829     	0.000000    	                	;NULL
 425             	60.6014     	0.000000    	                	;NULL
 426             	60.5606     	0.000000    	                	;NULL
 427             	60.5676     	0.000000    	                	;NULL
 519             	57.6260     	32.023487   	Flow232         	;232
 520             	57.7809     	0.000000    	                	;NULL
 542             	38.6477     	0.000000    	                	;NULL
 543             	38.0464     	59.950268   	Flow231         	;231
 544             	39.4247     	25.043468   	Flow233         	;233
 545             	48.8741     	0.000000    	                	;NULL
 546             	50.7104     	0.000000    	                	;NULL
 555             	48.5852     	36.863064   	Flow234         	;234
 N13             	138.7435    	0.000000    	                	;NULL
 N14             	87.7273     	0.000000    	                	;NULL
 N15             	75.0217     	0.000000    	                	;ExtraZones
 N17             	90.4005     	0.000000    	                	;NULL
 N18             	89.9557     	0.000000    	                	;NULL
 240-1           	40.9031     	0.000000    	                	;NULL
 N15_1           	75.0210     	0.000000    	                	;NULL
 415             	94.9349     	0.000000    	                	;NULL
 410             	98.6510     	1.000000    	Zone4           	;Zone
 293             	131.7068    	1.000000    	Zone3           	;Zone
 1               	90.0000     	1.000000    	Charaki         	;Charaki
 2               	90.0000     	1.000000    	Jacket          	;Jacket
 3               	90.0000     	1.000000    	Levanta         	;Levanta

[RESERVOIRS]
;ID              	Head        	Pattern         
 WTP             	155.0000    	                	;NULL
 Desalination    	155.0000    	                	;NULL

[TANKS]
;ID              	Elevation   	InitLevel   	MinLevel    	MaxLevel    	Diameter    	MinVol      	VolCurve        	Overflow
 T_Zone          	89.0000     	6.0000      	0.0000      	7.0000      	55.6261     	0.0000      	                	;NULL

[PIPES]
;ID              	Node1           	Node2           	Length      	Diameter    	Roughness   	MinorLoss   	Status
 dist1           	dist1769        	dist1786        	28.2925     	100.0000    	140.0000    	0.0000      	Open  	;NULL
 dist2           	dist1768        	dist1769        	1.0757      	100.0000    	140.0000    	0.0000      	Open  	;NULL
 dist3           	dist891         	dist908         	9.6438      	100.0000    	140.0000    	0.0000      	Open  	;NULL
 dist4           	dist78          	dist83          	20.9961     	100.0000    	140.0000    	0.0000      	Open  	;NULL
 dist5           	dist110         	dist115         	11.1679     	100.0000    	140.0000    	0.0000      	Open  	;NULL
 dist6           	dist1607        	dist1689        	53.3925     	100.0000    	140.0000    	0.0000      	Open  	;NULL
 dist7           	dist996         	dist1001        	21.3063     	100.0000    	140.0000    	0.0000      	Open  	;NULL
 dist8           	dist446         	dist443         	14.8284     	100.0000    	140.0000    	0.0000      	Open  	;NULL
 dist9           	dist458         	dist412         	34.3359     	100.0000    	140.0000    	0.0000      	Open  	;NULL
 dist10          	dist426         	dist399         	17.0184     	100.0000    	140.0000    	0.0000      	Open  	;NULL
 dist11          	dist1722        	dist1741        	53.4915     	100.0000    	140.0000    	0.0000      	Open  	;NULL
 dist12          	dist424         	dist439         	15.4817     	100.0000    	140.0000    	0.0000      	Open  	;NULL
 dist13          	dist585         	dist593         	3.7069      	100.0000    	140.0000    	0.0000      	Open  	;NULL
 dist14          	dist655         	dist656         	0.6531      	100.0000    	140.0000    	0.0000      	Open  	;NULL
 dist15          	dist1339        	dist1332        	25.1853     	100.0000    	140.0000    	0.0000      	Open  	;NULL
 dist16          	dist1346        	dist1339        	14.6896     	100.0000    	140.0000    	0.0000      	Open  	;NULL
 dist17          	dist1471        	dist1472        	0.8122      	100.0000    	140.0000    	0.0000      	Open  	;NULL
 dist18          	dist1877        	dist1944        	43.8126     	100.0000    	140.0000    	0.0000      	Open  	;NULL
 dist19          	dist1367        	dist1363        	3.6072      	200.0000    	140.0000    	0.0000      	Open  	;NULL
 dist20          	dist223         	dist231         	8.1243      	99.4000     	140.0000    	0.0000      	Open  	;NULL
 dist21          	dist356         	dist306         	29.5572     	144.6000    	140.0000    	0.0000      	Open  	;NULL
 dist22          	dist1303        	dist1309        	6.1455      	203.4000    	140.0000    	0.0000      	Open  	;NULL
 dist23          	dist1309        	dist1311        	2.0603      	203.4000    	140.0000    	0.0000      	Open  	;NULL
 dist24          	dist525         	dist523         	2.7992      	100.0000    	140.0000    	0.0000      	Open  	;NULL
 dist25          	dist356         	dist376         	9.4412      	144.6000    	140.0000    	0.0000      	Open  	;NULL
 dist26          	dist1245        	dist1241        	2.9179      	40.0000     	140.0000    	0.0000      	Open  	;NULL
 dist27          	dist546         	dist532         	56.4744     	150.0000    	140.0000    	0.0000      	Open  	;NULL
 dist28          	dist1840        	dist1765        	39.9503     	150.0000    	140.0000    	0.0000      	Open  	;NULL
 dist29          	dist1229        	dist1226        	4.2895      	150.0000    	140.0000    	0.0000      	Open  	;NULL
 dist30          	dist1840        	dist1843        	2.6326      	150.0000    	140.0000    	0.0000      	Open  	;NULL
 dist32          	dist71          	dist103         	36.8594     	100.0000    	140.0000    	0.0000      	Open  	;NULL
 dist33          	dist356         	dist361         	7.8644      	144.6000    	140.0000    	0.0000      	Open  	;NULL
 dist34          	dist376         	dist398         	9.8851      	144.6000    	140.0000    	0.0000      	Open  	;NULL
 dist35          	dist1028        	dist1268        	173.3528    	203.4000    	140.0000    	0.0000      	Open  	;NULL
 dist36          	dist1168        	dist1179        	9.1688      	99.4000     	140.0000    	0.0000      	Open  	;NULL
 dist37          	dist1255        	dist1272        	11.1535     	100.0000    	140.0000    	0.0000      	Open  	;NULL
 dist38          	dist1255        	dist1283        	82.2323     	100.0000    	140.0000    	0.0000      	Open  	;NULL
 dist39          	dist1268        	dist1303        	35.1815     	203.4000    	140.0000    	0.0000      	Open  	;NULL
 dist40          	dist1283        	dist1292        	59.7608     	100.0000    	140.0000    	0.0000      	Open  	;NULL
 dist41          	dist1303        	dist1345        	100.5644    	100.0000    	140.0000    	0.0000      	Open  	;NULL
 dist42          	dist1311        	dist1406        	90.1040     	99.4000     	140.0000    	0.0000      	Open  	;NULL
 dist43          	dist1371        	dist1372        	7.3648      	150.0000    	140.0000    	0.0000      	Open  	;NULL
 dist44          	dist1406        	dist1499        	60.1268     	100.0000    	140.0000    	0.0000      	Open  	;NULL
 dist45          	dist1468        	dist1471        	5.6147      	100.0000    	140.0000    	0.0000      	Open  	;NULL
 dist46          	dist1634        	dist1656        	54.4306     	100.0000    	140.0000    	0.0000      	Open  	;NULL
 dist47          	dist1722        	dist1808        	53.4601     	100.0000    	140.0000    	0.0000      	Open  	;NULL
 dist48          	dist1878        	dist1901        	9.5940      	99.4000     	140.0000    	0.0000      	Open  	;NULL
 dist49          	dist1924        	dist1936        	21.3868     	99.4000     	140.0000    	0.0000      	Open  	;NULL
 dist50          	dist1854        	dist1931        	51.6833     	99.4000     	140.0000    	0.0000      	Open  	;NULL
 dist51          	dist1973        	dist1984        	40.0132     	200.0000    	140.0000    	0.0000      	Open  	;NULL
 dist52          	dist1984        	dist1987        	8.5205      	200.0000    	140.0000    	0.0000      	Open  	;NULL
 dist313         	dist1893        	dist1876        	6.3856      	144.6000    	140.0000    	0.0000      	Open  	;NULL
 dist1016        	dist819         	dist852         	15.6798     	100.0000    	140.0000    	0.0000      	Closed	;NULL
 dist1022        	dist650         	dist655         	20.8210     	100.0000    	140.0000    	0.0000      	Closed	;NULL
 dist1920        	dist1768        	dist1769        	1.0757      	100.0000    	140.0000    	0.0000      	Open  	;NULL
 103             	296             	350             	777.2579    	400.0000    	140.0000    	0.0000      	Open  	;NULL
 224             	544             	542             	37.5646     	200.0000    	140.0000    	0.0000      	Open  	;NULL
 256             	546             	520             	1062.7587   	400.0000    	140.0000    	0.0000      	Open  	;NULL
 257             	296             	292             	10.9610     	400.0000    	140.0000    	0.0000      	Open  	;NULL
 294             	419             	520             	1212.3431   	400.0000    	140.0000    	0.0000      	Open  	;NULL
 310             	425             	426             	2.9280      	450.0000    	140.0000    	0.0000      	Open  	;NULL
 311             	426             	427             	4.3821      	450.0000    	140.0000    	0.0000      	Open  	;NULL
 413             	542             	543             	26.7988     	203.4000    	140.0000    	0.0000      	Open  	;NULL
 496             	545             	542             	419.3091    	250.0000    	140.0000    	0.0000      	Open  	;NULL
 498             	519             	520             	52.9312     	250.0000    	140.0000    	0.0000      	Open  	;NULL
 516             	555             	545             	28.3801     	250.0000    	140.0000    	0.0000      	Open  	;NULL
 524             	546             	545             	48.3337     	250.0000    	140.0000    	0.0000      	Open  	;NULL
 537             	425             	350             	1010.2994   	400.0000    	140.0000    	0.0000      	Open  	;NULL
 548             	240             	240-1           	313.8105    	400.0000    	140.0000    	0.0000      	Open  	;NULL
 619             	406             	408             	134.1163    	500.0000    	140.0000    	0.0000      	Open  	;NULL
 667             	406             	425             	850.7502    	450.0000    	140.0000    	0.0000      	Open  	;NULL
 N5              	T_Zone          	419             	25.7183     	700.0000    	140.0000    	0.0000      	Open  	;NULL
 N6              	414             	T_Zone          	43.0346     	700.0000    	140.0000    	0.0000      	Open  	;NULL
 N24             	WTP             	N13             	169.9245    	900.0000    	140.0000    	0.0000      	Open  	;NULL
 N29             	N13             	N14             	544.7585    	900.0000    	140.0000    	0.0000      	Open  	;NULL
 N31             	N17             	414             	77.2935     	500.0000    	140.0000    	0.0000      	Open  	;NULL
 N32             	N14             	N18             	484.3941    	500.0000    	140.0000    	0.0000      	Open  	;NULL
 548-1           	240-1           	296             	194.9673    	400.0000    	140.0000    	0.0000      	Open  	;NULL
 N28_1           	Desalination    	N15_1           	43.5005     	800.0000    	140.0000    	0.0000      	Open  	;NULL
 N28             	N15             	N14             	399.3716    	800.0000    	140.0000    	0.0000      	Open  	;NULL
 232             	415             	410             	197.0423    	200.0000    	140.0000    	0.0000      	Open  	;W-DP-DI200
 N26             	N13             	293             	2244.4864   	350.0000    	140.0000    	0.0000      	Open  	;NULL
 p-2             	dist11          	dist35          	42.4762     	100.0000    	140.0000    	0.0000      	Open  	;NULL
 p-6             	dist11          	dist30          	98.3777     	200.0000    	140.0000    	0.0000      	Open  	;NULL
 p-21            	dist30          	dist116         	234.7584    	100.0000    	140.0000    	0.0000      	Open  	;NULL
 p-30            	dist11          	dist1           	173.4385    	200.0000    	140.0000    	0.0000      	Open  	;NULL
 p-33            	dist1           	dist106         	269.5822    	203.4000    	140.0000    	0.0000      	Open  	;NULL